UCFWzc9uP1ypzbovLNLHYKOA
UCFWzcJ323z-HgK7UdHM5t1Q
UCFWzfTAWD0fDcIUIz--VRow
UCFWzhFPLu2dG7_quSepdODQ
UCFWzkqZLpQbXXmhdV-sq_3A
UCFWzmZQCyCX5VYmLcd36lcg
UCFWznAV9NwnJtThyeEZdp-Q
UCFWznKhArzTbceK4u9xu17g
UCFWzqX0Htrfw_K9Cz3gKjoQ
UCFWzs_2hpGx6dR9IMIYheTA
UCFWzvkGCbcTiAX-BlPkhTtw
UCFWzzQW5Kac-4JtBegQL7cA
UCFX-0pFb5SVXgJcew8lwqOA
UCFX-3bQvQgIomQ-00bb4AIQ
UCFX-5JMB7ixJMdzA3j9r0lg
UCFX-5PH19HUFqnyY7TCIXkA
UCFX-7KbBqU3lqis1D7lFt3w
UCFX-GJsEYkM16BaZ1y-YYJw
UCFX-MPb1iWs4EV8KfrvCwlQ
UCFX-MVwH0douj2MQc2KMkhw
UCFX-Q--x-fOSaqNUXzk8X-g
UCFX-QSqy3DA_O45nzFMGilA
UCFX-QvL0hmxwqFXLwKQ1qZA
UCFX-RygTjUWqZAwNjFhW7KQ
UCFX-TLy2alvlBIt8UnPz_GA
UCFX-TfsN2byncaAeVaaLjig
UCFX-Yz85Gm1qTS1rXod93eQ
UCFX-ZF4N0uLy94dfRQpB-lw
UCFX-_J17ZELEkB8ZlgxHCUA
UCFX-hcbc5ZdMxfAZcZ3rvPQ
UCFX-mTg3pEi81onhoX8ZPuQ
UCFX-p44A4Gy24I5Qk8Nyk_w
UCFX-tDtoE7pxA6Z6ADU4JwA
UCFX-v7AVfSL7EDJEYa7ZVzw
UCFX-ylGYFuec3W5jEGpXeEg
UCFX04tukyQiVcpeqJC6xWsw
UCFX0APnBe8nIyCBVUW4P6_w
UCFX0E1ibxGUwe0kdLi858Zg
UCFX0E7VUzdcrtgFvQqMBkEA
UCFX0Es9_6iJldY3GHHIU7eg
UCFX0HAyUkReEqY2Y6v_CG7w
UCFX0HQyVrKi-i3I4ufr0I7A
UCFX0Kf49mWzrNBYEzp-4VVg
UCFX0P5q4t9oQ4mqKlwMKu3A
UCFX0QLi-p3xpmYDUAJHMhng
UCFX0QysP-jgiham9eYwLPRQ
UCFX0W_BiwUmJWsjwhjaJltQ
UCFX0arbq1hxHI5hr7t71DpA
UCFX0eRWw0N5AsjBqlnzR32w
UCFX0hfU6midRp7eks8qoYOA
UCFX0i0fMstm3k-0bBbV4Tdw
UCFX0j7nmoJvIEo9l4Gz4s3A
UCFX0pJmPw7O8jyQXSy7ec5g
UCFX0q8X87gz4ckcAlQlY9wg
UCFX0vhzFI7dfq6cECpEbVhw
UCFX1-UmR-Or0o4iFVWwZ2nQ
UCFX13bxu58WFIxeEnG-TNUw
UCFX14C9iammrmePgyKXS85g
UCFX14EwAuozVvLoi0cIBJkQ
UCFX1FlNbIQJtE0rhbEb1rQw
UCFX1Kc4hHbNXjuFqHDPr33w
UCFX1L-HVWv8oYsfjCcnUZxg
UCFX1LB81k2G-ZyuPg5u3hDQ
UCFX1M6_gtJD4UeIZLlweEKQ
UCFX1MCPb3Dm0e1OzeUQNy7w
UCFX1NQOylHVUbTQ2VOAz72g
UCFX1TKZlq7zJNk7eMEuFXDg
UCFX1TiPxkTbTqGDpUMvY68Q
UCFX1WjksTM0_qkP3XHsYI6Q
UCFX1XGakQKnt1qABbNIZG7A
UCFX1Zc13oNOauqzJGnYRBiQ
UCFX1cz2bFrMjrdyWvaAmMsQ
UCFX1dvPw6T_JQhLHQm3L02w
UCFX1dxH9MnkBm5BcRenx6gw
UCFX1gXqsITfszEVQvxGoa7w
UCFX1hbUqlW_2iLm73_JZ2cg
UCFX1ioKPI7iyQo3iOvrNnvA
UCFX1sE4TxgegRXNlUId-QtQ
UCFX1w6GK-ZwxJKqofrVYRhg
UCFX1ysz7YUx5Jfwe5RKIG8w
UCFX1z2I7JfZM7DVrXgpvOhg
UCFX22SQfRVN0Q0hiNAdeQWg
UCFX2337ZuEAi_FkChRkPZRw
UCFX23NmuWup0cqZd8vfma2Q
UCFX26eFkpvkC2RlyOShdA-A
UCFX2CUXwdIHtd-4f1xMc5_Q
UCFX2EBl-NZAUmhvL6SegiCA
UCFX2FSrktL0TtK6iVASmtUA
UCFX2GBpw7GGuWySPHREBiIg
UCFX2GF9L81GfPiEI41GPhYg
UCFX2ImLvSqItOg_qzD0rWWg
UCFX2LBXyH9JewcFzYZHLoPw
UCFX2M7y1cEOcht8cKkcjxQg
UCFX2OHuWTWldlLjzlIVGVuQ
UCFX2QwJ82AbYkoSZhN9C3og
UCFX2SyqiS_T_9ZkriMX6cIA
UCFX2URusGj-cbZ0bB30lYjw
UCFX2VK395WEqI-tdZvVG9eA
UCFX2Y4pWgxTYrE1BkUSfnKA
UCFX2YFxYx9MUrb5EzHfDz5w
