UCFWyYuDHVPQf4leeDi-oUYw
UCFWyZccEQpq5yIa520KT1Mw
UCFWyZfZsZZ26A26GuBAdLNw
UCFWy_OPaxd70p6kf-A4Z4zQ
UCFWybS8xaGoYz2ABIQ8AE2A
UCFWydGb5OimOJZ0pMqkYc4g
UCFWydeCgWhRuy-mMQE_9HnA
UCFWyeuwvdNnfs1nWunjBpSg
UCFWyfDeh6jRpTP12qPk-Zbg
UCFWygQMecLtcgKqiXNC3ILQ
UCFWyghCizuYau43gcYY-UkQ
UCFWyhkZ-ub6RRI5-wFe3rVA
UCFWyiZwv1JDJkvXcJh-7lvA
UCFWylKprf6g_ZEtsfIiLlbw
UCFWypkUW7T0AkfZ-M8PW9BA
UCFWysJxoCcxT3frflz1WOMg
UCFWysjMF_EiqI78gp0-mMkw
UCFWytxzzvq2U5VTVF0Heodw
UCFWyvBVIvT0Q4gIceSjkUHg
UCFWyvX9x5wNXyxTsD96e_kA
UCFWywLcqnlJNUUAivQLI8XA
UCFWywu45yZ20HCH4ZJJsLmQ
UCFWz0_CmFtBd33IcVDCp6aw
UCFWz0npAJFLDu8t8J1HUx1Q
UCFWz1bRcxcENPK7MEgeJ6rw
UCFWz31I7UKMoXhjUNiVlxsg
UCFWz6RHeQTtVrLdMZEmj9fA
UCFWz6jhEBHAxO3EbpGGSStw
UCFWz6u90GTi2KCqQeHDRkKA
UCFWz7ElPO6YldU2mOEHoLIg
UCFWz9lraFjuWwLFKxufrP_A
UCFWz9mqiv7_X8Kda_sYMdtw
UCFWz9u-msrlqlRmZtpFx9lQ
UCFWzAEnqTiqwCQSSTkktVeg
UCFWzATlUY8A3ja58zPMhouA
UCFWzAangYF6xxFKl5kMq5VA
UCFWzCXXNRxcOYihs3WtcNYQ
UCFWzCfWCMj7O5MwwWtc_1lA
UCFWzDwy8_JU-4uRtCLSCWvA
UCFWzEFdRsNLqs8xi1Qr93lw
UCFWzEdGO-0oxuLlEr-u9JFA
UCFWzEkB3Z5Z85ITBThv11JA
UCFWzGCorymIOqrs6ULxvb-A
UCFWzGfl9vgLcfNo1FukJ3VA
UCFWzGoUXSZuhIWPkh9_Wpsg
UCFWzHH0aovQBo42dSTCViiw
UCFWzIL2HREKskUZY3dWQL9g
UCFWzIfaunTaJs6_2uNxWvEQ
UCFWzIlsO_My1bVqX7VFY51Q
UCFWzJk4YprWmp9aL_-iFFDw
UCFWzK7wtsvSWoQ2W8oxrOpw
UCFWzKhCOE1SMpeMgR1SCGMw
UCFWzNNBqPAlSFOvlHHjTUFg
UCFWzOeN_49FAl8MtfOlW1FA
UCFWzP35xoc6CoRuctFa_psQ
UCFWzQ6HSxpJHWQQx1bvBhgA
UCFWzQp735HA_n8mLoIiVF0Q
UCFWzSi3yysajAuybHS6_Omw
UCFWzTTyhhF5clyakeiZoJXw
UCFWzT_Hbks0-NYLiYP1pGTQ
UCFWzTxFDGtlRC1YtO8QTDxQ
UCFWzUEC3pFJz363fSUOUdzg
UCFWzWKuuV-_YNrYBDveDuuw
UCFWzYNFivHGEgbY7FZYFHDw
UCFWzZvaylwmQjf7lIiPhwAw
UCFWz_3DgI3OJXuDM31iiGnQ
UCFWz_3VjyOKcxYilXV7Ltyw
UCFWz_QtpJTLVApws_FrWKsA
UCFWz_hXeVlf284o_AEFwuqA
UCFWzbVv7ctZDMXIW7k5tK_g
UCFWzbzCchOrFl9Vs4daEqPQ
UCFWzdlbZBYziZclFNPzWlGQ
UCFWzgfYUdG7OFK9MxHSHSPw
UCFWzh4SUX6LvsniNkWnGdbw
UCFWzi8CtTUn1oPQYFls3MhA
UCFWzjoJnqHXaUNpsYdrjRXA
UCFWzki5rEInvIaEYLTnwWbQ
UCFWzn18yi_LbW9h2xruCuLg
UCFWznEm74nCuEmBp5obpn-Q
UCFWzp2JNxPJDBUtZ6d7VFAQ
UCFWzpXo3f9_T3iisVgooJFA
UCFWzpZ3gxinEqzojVyXB-dQ
UCFWzrraM4Pf_LECrVciolZQ
UCFWzs3n4-FcWYStG3ZIIabw
UCFWzuFTbinaS1gy3-GyRU0Q
UCFWzwGsw_zFOH9mV3ZRAXZw
UCFWzx5awtB3tfOE-zsVQocA
UCFWzxMgcMe0wW0AXpmrB_YA
UCFWzytsim03hA6zEBY2M9_g
UCFX--zpZXycQDiyopgRRD7A
UCFX-0MJxrJXq-OR9OXqtAkg
UCFX-1Iz63HQj2C8NH8JnmCA
UCFX-1KUFSzWeCgBu3Ft7_Qg
UCFX-1y6D9TqIyPyEmvnLU8g
UCFX-2qU5o33xW4QztH0j5mg
UCFX-3RqjX_d_lweDQlGDVDQ
UCFX-40kcs23b6h-QKuqPlFg
UCFX-4VFMbXsbPyNJ24veTqQ
UCFX-4uCJAFkCnhcAzTR3G4A
UCFX-5Hz8za7e-IgRKQpCQuQ
