UCFWzomwu_033sbJ3ziiTGzg
UCFWzpUagfM6Il3LadT8bkYg
UCFWzqggjgSBlOcZGVhgKfWg
UCFWzsCSKfrMZiR4_VSOKHVw
UCFWztbvmb0bpP65m-PsCYJQ
UCFWzu6m2Z9Gdx4g0-um4vLw
UCFWzw1Z4nE3bTa4fSvmK5cA
UCFWzwxfoQ9oZr3mvkvxPMvQ
UCFWzx4arCEWTJR-2gVO19Mw
UCFWzyDGVN_woF3qYM96a6NA
UCFWzyrYjNxb86_8fwKsCv5g
UCFWzz_3OvQ-HY9-wo0WagRQ
UCFX-0HhqniJUdGqlkuaTx5g
UCFX-0J6d9f_0LeX2RoLS14g
UCFX-0k4QVuVzyfK0Rstuepg
UCFX-3ERxR53xL6IwnnYa8IA
UCFX-47_qOYjDsiZFQuz_xqQ
UCFX-4keD8tw3FiQJjxov-GA
UCFX-5VeQ4L6YTSz6O0n9g8g
UCFX-7O9KF1ShY2aZwOtrTzw
UCFX-A3XFdDrQv4Mey5WSUQw
UCFX-AKOfC2SGEO4lzqg87JQ
UCFX-CJcdikAQz71o4wV-3yg
UCFX-DENjAmDvkdDIiXMvpSQ
UCFX-DcPmyizA-ySUUqgag6A
UCFX-Gclw6neIFxcFhVVOKxg
UCFX-HCgi_XJt2A_L9lCHNUw
UCFX-HaB6eAdgNPYIBE7X53w
UCFX-ICKNwnmZ5wHNvFO0ZPQ
UCFX-JbxUJHVS7-wBiYbQaJg
UCFX-Kr-aEEoA_Sx8DP091GQ
UCFX-L0ahymXOcD5S56yHgiQ
UCFX-NMQmBSqHAg8fX_IqwBQ
UCFX-NWcHqr1H6b_ZgfNHxjQ
UCFX-Q5Ncv5tlF5vRh1ZZDyA
UCFX-T2HkP1oxdRVisRlm18A
UCFX-TgNQfZoIkiHMx51hdzg
UCFX-UC9uFCPPCiAnuxNqHEw
UCFX-V0BGBliZCSqiSqaKhqg
UCFX-VEAa1nswm3IlDvn5bmQ
UCFX-Xt8w8HcgNGyssYn9tyQ
UCFX-YYjVSny3znDjueXRZWQ
UCFX-YxeGOemhD0ayzIc4lMA
UCFX-ZDqQGc_sjENJcElVcdg
UCFX-_-X3n8FxNytQdcRvdaw
UCFX-_3fniew_XkrG-UzrX4g
UCFX-_eRoefwznbl2ZG7ek6w
UCFX-a1pzAheqLqUDFPGDP-A
UCFX-at2XcaIEH1L2hC8PwLQ
UCFX-cK9g74h9j6nrOWaeFtg
UCFX-cdewbZb1jDZzxh2CV2w
UCFX-ciBX3SNM7P5Xr_Q4M_g
UCFX-hgRADVmAUITCc3q2u-g
UCFX-imvfaBq5XE9kQPj-DzQ
UCFX-iyP_f4-fCz7fTq75fwg
UCFX-nPMs5ydOz3A1cgr70FQ
UCFX-oIX1d8h5G5sY0_lb5cg
UCFX-oOySdPpv1JMpQ20dpQg
UCFX-qwmJQtIWP8yTKaSRCxw
UCFX-rHG1foYDdy_K2VopMEA
UCFX-sapZd74RWvRcORn6Zow
UCFX-sbikwW2h5_3X0Aqq4jw
UCFX-txgjxg719NhfueTpMsA
UCFX-uJw2J_AZefnmDqesTyg
UCFX-uc7HALmfV0vcdms7lDw
UCFX-v-vj-_8VboG-BEdkiDg
UCFX-vf9aO-nUgDzERqZUv7Q
UCFX-w9smaIoD2mz9UAwTu-g
UCFX-ywqgaG_K1dDYF0traHQ
UCFX013JxN_Au2ucL5z2fJAg
UCFX01kAcHnQ5zUE-WgRzAQw
UCFX04hk7mFXOTdtjLYbYKCg
UCFX04ocs7c0-wCU2GZG1RZg
UCFX05bRJfps7DkQMdqJ74dA
UCFX06Q72P054HXzIzKUYA5w
UCFX07wgkf4HnK7-JmF9mljg
UCFX08LOoCBHXFoVBq2Dagug
UCFX08ll4sNQFqksJkOu0fDg
UCFX0AnoEmMGawxFu7C_IKdA
UCFX0BmWWck5IebYtti_t_hw
UCFX0CPTe2CRbgN13rMLHxsw
UCFX0DXOy7D56GQdFy24wadA
UCFX0E-45AuX740hmWI_z0NQ
UCFX0E1Wgl-NbDVLLfA6D2TQ
UCFX0EkOXqYldX3poax-yh9Q
UCFX0EnYK_BggGa1NRsbgMTQ
UCFX0FdEbCS4jE4XrLdMpHuw
UCFX0FlyJz4VAcsoCjFqh1Iw
UCFX0GHD2wvehzFarQaVbmVg
UCFX0GIbCBIzbe4gyeXf_C2A
UCFX0HyzOpll-tEJlqn7PvXA
UCFX0IZh4e4VMg2Ze8SikA-g
UCFX0IjeZkI2PsJz3BiNOvjA
UCFX0JDTgomCtS2rHk7GfBLA
UCFX0Jl_Jv2NZWyuW9UNVSyw
UCFX0KrQt4ezKTgKGBmwGqYw
UCFX0NWa0MA7eL8zV3VZ4Qxg
UCFX0QsOJFZ_nBYHUUhRBujg
UCFX0RHjDLkpY9-dn7mHSaoA
UCFX0RLlRQgvgovkgEDwc5hg
